Version 4
SHEET 1 880 680
WIRE 48 48 -48 48
WIRE 288 48 128 48
WIRE 464 48 288 48
WIRE 640 48 576 48
WIRE -48 80 -48 48
WIRE 288 96 288 48
WIRE -48 208 -48 160
WIRE 176 208 -48 208
WIRE 288 208 288 160
WIRE 288 208 176 208
WIRE 496 208 288 208
WIRE 176 240 176 208
FLAG 176 240 0
FLAG 640 48 OUT
SYMBOL cap 272 96 R0
SYMATTR InstName C1
SYMATTR Value 50e-6
SYMBOL res 144 32 R90
WINDOW 0 0 56 VBottom 2
WINDOW 3 32 56 VTop 2
SYMATTR InstName R1
SYMATTR Value {R}
SYMBOL voltage -48 64 R0
WINDOW 3 -249 113 Left 2
WINDOW 123 0 0 Left 0
WINDOW 39 0 0 Left 0
SYMATTR Value PULSE(0 3.3 1e-3 1e-9 1e-9 40e-3 80e-3 1)
SYMATTR InstName V1
SYMBOL Dig_Add\\CD4xxx\\cd4050b 512 -16 R0
SYMATTR InstName U1
SYMATTR SpiceLine VDD=3.3  SPEED=1.0  TRIPDT=5e-9
TEXT -40 376 Left 2 !.tran 100ms
TEXT -40 288 Left 2 !.step param R 800 1100 1
TEXT -32 248 Left 2 !.save V(OUT)
TEXT -32 328 Left 2 !.meas period TRIG V(OUT)=3.3 TARG V(OUT)=0
